inputs/GSO_Base_Network/Industrial/Lines.dss
New Line.clineacable(cramaee():s_dummy1438->uclv33941) Units=mi Length=0.0110044182729 bus1=s_dummy1438.1.2 bus2=uclv33941.1.2 switch=n phases=2 Linecode=2P_Code0

New Line.clineacable(cramaee():s_dummy1042->uclv60697) Units=mi Length=0.0083885085 bus1=s_dummy1042.1.2 bus2=uclv60697.1.2 switch=n phases=2 Linecode=2P_Code0

New Line.clineacable(cramaee():s_ncctt67_bt->uclv58709) Units=mi Length=0.0247254084207 bus1=s_ncctt67_bt.1.2 bus2=uclv58709.1.2 switch=n phases=2 Linecode=2P_Code0

New Line.clineacable(cramaee():s_ncctt531->s_ncctt676) Units=mi Length=0.0172943083575 bus1=s_ncctt676.1.2.3 bus2=s_ncctt531.1.2.3 switch=n phases=3 Linecode=3P_Code1

New Line.clineacable(cramaee():s_ncctt1274->s_ncctt371) Units=mi Length=0.0292942872466 bus1=s_ncctt1274.1.2.3 bus2=s_ncctt371.1.2.3 switch=n phases=3 Linecode=3P_Code1

New Line.clineacable(cramaee():s_ncctt1031_bt->uclv12552) Units=mi Length=0.000621371 bus1=s_ncctt1031_bt.1.2.3 bus2=uclv12552.1.2.3 switch=n phases=3 Linecode=3P_Code2

New Line.clineacable(cramaee():s_dummy113->uclv7809) Units=mi Length=0.00411279872561 bus1=s_dummy113.1.2 bus2=uclv7809.1.2 switch=n phases=2 Linecode=2P_Code0

New Line.clineacable(cramaee():s_dummy2500->s_ncctt1420_bt) Units=mi Length=0.000621371 bus1=s_ncctt1420_bt.1.2 bus2=s_dummy2500.1.2 switch=n phases=2 Linecode=2P_Code3

New Line.clineacable(cramaee():s_ncctt802_bt->uclv26885) Units=mi Length=0.000621371 bus1=s_ncctt802_bt.1.2 bus2=uclv26885.1.2 switch=n phases=2 Linecode=2P_Code0

New Line.switch(cramaee():s_ncctt103->s_ncctt243)_s_737 Units=mi Length=0.000621371 bus1=s_ncctt243.1 bus2=s_ncctt103->s_ncctt243_s_s.1 switch=y phases=3 Linecode=1P_Code4

New Line.fuse(cramaee():s_ncctt10->s_ncctt576)_s_1725 Units=mi Length=0.000621371 bus1=s_ncctt576.2 bus2=s_ncctt10->s_ncctt576_s.2 switch=y phases=3 Linecode=1P_Code4

New Line.switch(cramaee():s_ncctt104->s_ncctt266)_s_1305 Units=mi Length=0.000621371 bus1=s_ncctt104.1.2.3 bus2=s_ncctt104->s_ncctt266_s.1.2.3 switch=y phases=3 Linecode=3P_Code5

New Line.clineacable(cramaee():s_ncctt614->s_ncctt783) Units=mi Length=0.000621371 bus1=s_ncctt614.1.2.3 bus2=s_ncctt783.1.2.3 switch=n phases=3 Linecode=3P_Code1

New Line.switch(cramaee():s_ncctt104->s_ncctt266)_s_1306 Units=mi Length=0.000621371 bus1=s_ncctt104->s_ncctt266_s_s.1.2.3 bus2=s_ncctt266.1.2.3 switch=y phases=3 Linecode=3P_Code5

New Line.clineacable(cramaee():s_dummy2593->uclv10021) Units=mi Length=0.0518479418852 bus1=s_dummy2593.1.2 bus2=uclv10021.1.2 switch=n phases=2 Linecode=2P_Code0

New Line.clineacable(cramaee():s_ncctt1079->s_ncctt1201) Units=mi Length=0.0353415319557 bus1=s_ncctt1079.1.2.3 bus2=s_ncctt1201.1.2.3 switch=n phases=3 Linecode=3P_Code1

New Line.clineacable(cramaee():s_dummy759->s_ncctt308_bt) Units=mi Length=0.000621371 bus1=s_ncctt308_bt.1.2 bus2=s_dummy759.1.2 switch=n phases=2 Linecode=2P_Code3

New Line.clineacable(cramaee():s_ncctt1394->s_ncctt817) Units=mi Length=0.113516403877 bus1=s_ncctt1394->s_ncctt817_s_s.1 bus2=s_ncctt1394->s_ncctt817_s.1 switch=n phases=1 Linecode=1P_Code6

New Line.clineacable(cramaee():s_ncctt45_bt->uclv3658) Units=mi Length=0.0438732043341 bus1=s_ncctt45_bt.1.2.3 bus2=uclv3658.1.2.3 switch=n phases=3 Linecode=3P_Code2

New Line.clineacable(cramaee():s_ncctt1425_bt->uclv52160) Units=mi Length=0.0237322090143 bus1=s_ncctt1425_bt.1.2.3 bus2=uclv52160.1.2.3 switch=n phases=3 Linecode=3P_Code2

New Line.clineacable(cramaee():s_dummy167->uclv7769) Units=mi Length=0.0071013384735 bus1=s_dummy167.1.2 bus2=uclv7769.1.2 switch=n phases=2 Linecode=2P_Code0

New Line.clineacable(cramaee():s_ncctt407_bt->uclv45894) Units=mi Length=0.0205365600984 bus1=s_ncctt407_bt.1.2 bus2=uclv45894.1.2 switch=n phases=2 Linecode=2P_Code7

New Line.clineacable(cramaee():s_dummy1959->s_ncctt906_bt) Units=mi Length=0.0187917503304 bus1=s_ncctt906_bt.1.2 bus2=s_dummy1959.1.2 switch=n phases=2 Linecode=2P_Code7

New Line.switch(cramaee():s_ncctt1144->ucmv38)_s_1148 Units=mi Length=0.000621371 bus1=ucmv38.3 bus2=s_ncctt1144->ucmv38_s_s.3 switch=y phases=3 Linecode=1P_Code4

New Line.clineacable(cramaee():s_ncctt464->s_ncctt878) Units=mi Length=0.063153662956 bus1=s_ncctt464.1.2.3 bus2=s_ncctt878.1.2.3 switch=n phases=3 Linecode=3P_Code1

New Line.clineacable(cramaee():s_dummy878->s_ncctt478_bt) Units=mi Length=0.000621371 bus1=s_ncctt478_bt.1.2 bus2=s_dummy878.1.2 switch=n phases=2 Linecode=2P_Code0

New Line.clineacable(cramaee():s_dummy43->uclv6874) Units=mi Length=0.034930370765 bus1=s_dummy43.1.2 bus2=uclv6874.1.2 switch=n phases=2 Linecode=2P_Code0

New Line.clineacable(cramaee():s_dummy887->s_ncctt477_bt) Units=mi Length=0.000621371 bus1=s_ncctt477_bt.1.2 bus2=s_dummy887.1.2 switch=n phases=2 Linecode=2P_Code3

New Line.clineacable(cramaee():s_ncctt377_bt->uclv37520) Units=mi Length=0.0213803819164 bus1=s_ncctt377_bt.1.2 bus2=uclv37520.1.2 switch=n phases=2 Linecode=2P_Code0

New Line.clineacable(cramaee():s_ncctt4_bt->uclv3679) Units=mi Length=0.0151615766742 bus1=s_ncctt4_bt.1.2 bus2=uclv3679.1.2 switch=n phases=2 Linecode=2P_Code0

New Line.clineacable(cramaee():s_ncctt933->s_ncctt971) Units=mi Length=0.0214193418781 bus1=s_ncctt971.1.2.3 bus2=s_ncctt933.1.2.3 switch=n phases=3 Linecode=3P_Code1

New Line.clineacable(cramaee():s_dummy590->uclv52280) Units=mi Length=0.0105934434935 bus1=s_dummy590.1.2 bus2=uclv52280.1.2 switch=n phases=2 Linecode=2P_Code0

New Line.clineacable(cramaee():s_ncctt1552_bt->uclv10072) Units=mi Length=0.00520803967763 bus1=s_ncctt1552_bt.1.2 bus2=uclv10072.1.2 switch=n phases=2 Linecode=2P_Code7

New Line.clineacable(cramaee():s_ncctt108_bt->uclv60326) Units=mi Length=0.00596807582999 bus1=s_ncctt108_bt.1.2.3 bus2=uclv60326.1.2.3 switch=n phases=3 Linecode=3P_Code2

New Line.switch(cramaee():s_ncctt103->s_ncctt243)_s_738 Units=mi Length=0.000621371 bus1=s_ncctt103->s_ncctt243_s.1 bus2=s_ncctt103.1 switch=y phases=3 Linecode=1P_Code4

New Line.clineacable(cramaee():s_ncctt326->s_ncctt512) Units=mi Length=0.085542902828 bus1=s_ncctt326.1.2.3 bus2=s_ncctt512.1.2.3 switch=n phases=3 Linecode=3P_Code1

New Line.clineacable(cramaee():s_dummy421->s_dummy427) Units=mi Length=0.0105634934113 bus1=s_dummy421.1.2 bus2=s_dummy427.1.2 switch=n phases=2 Linecode=2P_Code0

New Line.clineacable(cramaee():s_dummy2174->s_dummy2176) Units=mi Length=0.0118683725113 bus1=s_dummy2176.1.2 bus2=s_dummy2174.1.2 switch=n phases=2 Linecode=2P_Code7

New Line.clineacable(cramaee():s_ncctt7_bt->uclv3653) Units=mi Length=0.0404646737136 bus1=s_ncctt7_bt.1.2 bus2=uclv3653.1.2 switch=n phases=2 Linecode=2P_Code0

New Line.clineacable(cramaee():s_ncctt652_bt->uclv29108) Units=mi Length=0.0045631622127 bus1=s_ncctt652_bt.1.2 bus2=uclv29108.1.2 switch=n phases=2 Linecode=2P_Code0

New Line.clineacable(cramaee():s_dummy2433->s_ncctt1329_bt) Units=mi Length=0.000621371 bus1=s_ncctt1329_bt.1.2 bus2=s_dummy2433.1.2 switch=n phases=2 Linecode=2P_Code3

New Line.clineacable(cramaee():s_ncctt1247->s_ncctt1292) Units=mi Length=0.0398090651715 bus1=s_ncctt1247.1.2.3 bus2=s_ncctt1292.1.2.3 switch=n phases=3 Linecode=3P_Code1

New Line.clineacable(cramaee():s_dummy1151->s_ncctt182_bt) Units=mi Length=0.000621371 bus1=s_ncctt182_bt.1.2 bus2=s_dummy1151.1.2 switch=n phases=2 Linecode=2P_Code8

New Line.clineacable(cramaee():s_dummy935->s_ncctt404_bt) Units=mi Length=0.000621371 bus1=s_ncctt404_bt.1.2 bus2=s_dummy935.1.2 switch=n phases=2 Linecode=2P_Code3

New Line.clineacable(cramaee():s_ncctt336_bt->uclv44836) Units=mi Length=0.000621371 bus1=s_ncctt336_bt.1.2 bus2=uclv44836.1.2 switch=n phases=2 Linecode=2P_Code0

New Line.clineacable(cramaee():s_dummy1158->s_dummy1160) Units=mi Length=0.0152073717169 bus1=s_dummy1158.1.2 bus2=s_dummy1160.1.2 switch=n phases=2 Linecode=2P_Code7

New Line.clineacable(cramaee():s_ncctt348->s_ncctt854) Units=mi Length=0.062337802833 bus1=s_ncctt854.1.2.3 bus2=s_ncctt348.1.2.3 switch=n phases=3 Linecode=3P_Code1

New Line.clineacable(cramaee():s_ncctt1330->s_ncctt689) Units=mi Length=0.073644269549 bus1=s_ncctt689.1 bus2=s_ncctt1330.1 switch=n phases=1 Linecode=1P_Code9

New Line.breaker(cramaee():s_nssee3_69->s_nst0_69)_s_1160sd3sd23sd13 Units=mi Length=0.000621371 bus1=s_nst0_69.1.2.3 bus2=s_nssee3_69->s_nst0_69_s_p_s_p.1.2.3 switch=y phases=3 Linecode=3P_Code5

New Line.clineacable(cramaee():s_ncctt1277_bt->uclv48813) Units=mi Length=0.0165435057782 bus1=s_ncctt1277_bt.1.2.3 bus2=uclv48813.1.2.3 switch=n phases=3 Linecode=3P_Code2

New Line.clineacable(cramaee():s_ncctt545->s_ncctt562) Units=mi Length=0.0384929392564 bus1=s_ncctt545.2 bus2=s_ncctt562.2 switch=n phases=1 Linecode=1P_Code9

New Line.clineacable(cramaee():s_dummy2165->uclv21209) Units=mi Length=0.0076063888223 bus1=s_dummy2165.1.2 bus2=uclv21209.1.2 switch=n phases=2 Linecode=2P_Code7

New Line.fuse(cramaee():s_ncctt1243->s_ncctt49)_s_1780 Units=mi Length=0.000621371 bus1=s_ncctt1243.3 bus2=s_ncctt1243->s_ncctt49_s.3 switch=y phases=3 Linecode=1P_Code4

New Line.clineacable(cramaee():s_dummy202->s_ncctt65_bt) Units=mi Length=0.00504651428618 bus1=s_ncctt65_bt.1.2 bus2=s_dummy202.1.2 switch=n phases=2 Linecode=2P_Code0

New Line.clineacable(cramaee():s_ncctt523_bt->uclv29959) Units=mi Length=0.000621371 bus1=s_ncctt523_bt.1.2 bus2=uclv29959.1.2 switch=n phases=2 Linecode=2P_Code0

New Line.clineacable(cramaee():s_dummy641->s_dummy643) Units=mi Length=0.0360443025567 bus1=s_dummy641.1.2 bus2=s_dummy643.1.2 switch=n phases=2 Linecode=2P_Code0

New Line.fuse(cramaee():s_ncctt1576->ucmv60)_s_1691 Units=mi Length=0.000621371 bus1=ucmv60.3 bus2=s_ncctt1576->ucmv60_s.3 switch=y phases=3 Linecode=1P_Code4

New Line.clineacable(cramaee():s_dummy1410->s_ncctt670_bt) Units=mi Length=0.0093697154461 bus1=s_ncctt670_bt.1.2 bus2=s_dummy1410.1.2 switch=n phases=2 Linecode=2P_Code7

New Line.clineacable(cramaee():s_dummy916->uclv46430) Units=mi Length=0.0337852461491 bus1=s_dummy916.1.2 bus2=uclv46430.1.2 switch=n phases=2 Linecode=2P_Code0

New Line.clineacable(cramaee():s_ncctt455_bt->uclv40778) Units=mi Length=0.0092240039466 bus1=s_ncctt455_bt.1.2 bus2=uclv40778.1.2 switch=n phases=2 Linecode=2P_Code0

New Line.clineacable(cramaee():s_ncctt594->ucmv44) Units=mi Length=0.13583791431 bus1=ucmv44.1.2.3 bus2=s_ncctt594.1.2.3 switch=n phases=3 Linecode=3P_Code1

New Line.clineacable(cramaee():s_dummy48->s_dummy58) Units=mi Length=0.000621371 bus1=s_dummy48.1.2 bus2=s_dummy58.1.2 switch=n phases=2 Linecode=2P_Code3

New Line.clineacable(cramaee():s_dummy1193->s_ncctt512_bt) Units=mi Length=0.000621371 bus1=s_ncctt512_bt.1.2 bus2=s_dummy1193.1.2 switch=n phases=2 Linecode=2P_Code3

New Line.clineacable(cramaee():s_ncctt461->s_ncctt684) Units=mi Length=0.070020433877 bus1=s_ncctt461.1.2.3 bus2=s_ncctt684.1.2.3 switch=n phases=3 Linecode=3P_Code1

New Line.clineacable(cramaee():s_dummy1070->s_ncctt189_bt) Units=mi Length=0.0118126355326 bus1=s_ncctt189_bt.1.2 bus2=s_dummy1070.1.2 switch=n phases=2 Linecode=2P_Code0

New Line.clineacable(cramaee():s_ncctt519->s_ncctt841) Units=mi Length=0.062906978669 bus1=s_ncctt519.1.2.3 bus2=s_ncctt841.1.2.3 switch=n phases=3 Linecode=3P_Code1

New Line.clineacable(cramaee():s_ncctt840_bt->uclv29235) Units=mi Length=0.007701272174 bus1=s_ncctt840_bt.1.2 bus2=uclv29235.1.2 switch=n phases=2 Linecode=2P_Code0

New Line.clineacable(cramaee():s_ncctt750_bt->uclv36946) Units=mi Length=0.0235283371892 bus1=s_ncctt750_bt.1.2.3 bus2=uclv36946.1.2.3 switch=n phases=3 Linecode=3P_Code2

New Line.clineacable(cramaee():s_dummy1502->s_ncctt736_bt) Units=mi Length=0.000621371 bus1=s_ncctt736_bt.1.2 bus2=s_dummy1502.1.2 switch=n phases=2 Linecode=2P_Code3

New Line.clineacable(cramaee():s_dummy31->uclv3669) Units=mi Length=0.00548392840163 bus1=s_dummy31.1.2 bus2=uclv3669.1.2 switch=n phases=2 Linecode=2P_Code7

New Line.clineacable(cramaee():s_dummy1162->s_dummy1165) Units=mi Length=0.000621371 bus1=s_dummy1162.1.2 bus2=s_dummy1165.1.2 switch=n phases=2 Linecode=2P_Code8

New Line.clineacable(cramaee():s_dummy1607->s_ncctt839_bt) Units=mi Length=0.000621371 bus1=s_ncctt839_bt.1.2 bus2=s_dummy1607.1.2 switch=n phases=2 Linecode=2P_Code3

New Line.clineacable(cramaee():s_ncctt454->ucmv59) Units=mi Length=0.0344005898504 bus1=s_ncctt454.1.2.3 bus2=ucmv59.1.2.3 switch=n phases=3 Linecode=3P_Code1

New Line.clineacable(cramaee():s_ncctt1310->s_ncctt251) Units=mi Length=0.029040395056 bus1=s_ncctt251.1.2.3 bus2=s_ncctt1310.1.2.3 switch=n phases=3 Linecode=3P_Code1

New Line.clineacable(cramaee():s_ncctt613->s_ncctt845) Units=mi Length=0.0130244953939 bus1=s_ncctt845.1.2.3 bus2=s_ncctt613.1.2.3 switch=n phases=3 Linecode=3P_Code1

New Line.switch(cramaee():s_ncctt1243->s_ncctt191)_s_1550 Units=mi Length=0.000621371 bus1=s_ncctt1243->s_ncctt191_s.1.2.3 bus2=s_ncctt1243.1.2.3 switch=y phases=3 Linecode=3P_Code5

New Line.clineacable(cramaee():s_ncctt133->s_ncctt1358) Units=mi Length=0.070846235936 bus1=s_ncctt133.1.2.3 bus2=s_ncctt1358.1.2.3 switch=n phases=3 Linecode=3P_Code1

New Line.clineacable(cramaee():s_dummy838->s_ncctt364_bt) Units=mi Length=0.000621371 bus1=s_ncctt364_bt.1.2 bus2=s_dummy838.1.2 switch=n phases=2 Linecode=2P_Code3

New Line.clineacable(cramaee():s_ncctt1037->s_ncctt662) Units=mi Length=0.0190527882875 bus1=s_ncctt1037.1.2.3 bus2=s_ncctt662.1.2.3 switch=n phases=3 Linecode=3P_Code1

New Line.clineacable(cramaee():s_ncctt718_bt->uclv34176) Units=mi Length=0.0193465724963 bus1=s_ncctt718_bt.1.2.3 bus2=uclv34176.1.2.3 switch=n phases=3 Linecode=3P_Code2

New Line.clineacable(cramaee():s_dummy330->s_dummy332) Units=mi Length=0.0076728755193 bus1=s_dummy330.1.2 bus2=s_dummy332.1.2 switch=n phases=2 Linecode=2P_Code0

New Line.clineacable(cramaee():s_dummy2102->s_ncctt1177_bt) Units=mi Length=0.000621371 bus1=s_ncctt1177_bt.1.2 bus2=s_dummy2102.1.2 switch=n phases=2 Linecode=2P_Code3

New Line.clineacable(cramaee():s_dummy1538->s_ncctt778_bt) Units=mi Length=0.000621371 bus1=s_ncctt778_bt.1.2 bus2=s_dummy1538.1.2 switch=n phases=2 Linecode=2P_Code3

New Line.clineacable(cramaee():s_dummy825->uclv30510) Units=mi Length=0.0141483069845 bus1=s_dummy825.1.2 bus2=uclv30510.1.2 switch=n phases=2 Linecode=2P_Code0

New Line.clineacable(cramaee():s_dummy1345->s_ncctt605_bt) Units=mi Length=0.000621371 bus1=s_ncctt605_bt.1.2 bus2=s_dummy1345.1.2 switch=n phases=2 Linecode=2P_Code3

New Line.clineacable(cramaee():s_ncctt332_bt->uclv44603) Units=mi Length=0.0200287757172 bus1=s_ncctt332_bt.1.2 bus2=uclv44603.1.2 switch=n phases=2 Linecode=2P_Code0

New Line.clineacable(cramaee():s_ncctt1122_bt->uclv12814) Units=mi Length=0.000621371 bus1=s_ncctt1122_bt.1.2.3 bus2=uclv12814.1.2.3 switch=n phases=3 Linecode=3P_Code2

New Line.clineacable(cramaee():s_ncctt951_bt->uclv12564) Units=mi Length=0.0109462579473 bus1=s_ncctt951_bt.1.2.3 bus2=uclv12564.1.2.3 switch=n phases=3 Linecode=3P_Code2

New Line.clineacable(cramaee():s_dummy233->s_dummy234) Units=mi Length=0.000621371 bus1=s_dummy233.1.2 bus2=s_dummy234.1.2 switch=n phases=2 Linecode=2P_Code3

New Line.switch(cramaee():s_ncctt635->s_ncctt774)_s_1642 Units=mi Length=0.000621371 bus1=s_ncctt635->s_ncctt774_s.1.2.3 bus2=s_ncctt635.1.2.3 switch=y phases=3 Linecode=3P_Code5

New Line.clineacable(cramaee():s_dummy992->s_ncctt461_bt) Units=mi Length=0.000621371 bus1=s_ncctt461_bt.1.2 bus2=s_dummy992.1.2 switch=n phases=2 Linecode=2P_Code3

New Line.clineacable(cramaee():s_dummy2295->s_ncctt1265_bt) Units=mi Length=0.000621371 bus1=s_ncctt1265_bt.1.2 bus2=s_dummy2295.1.2 switch=n phases=2 Linecode=2P_Code3

New Line.clineacable(cramaee():s_ncctt780_bt->uclv36223) Units=mi Length=0.0303585714954 bus1=s_ncctt780_bt.1.2 bus2=uclv36223.1.2 switch=n phases=2 Linecode=2P_Code0

New Line.clineacable(cramaee():s_ncctt504->s_ncctt505) Units=mi Length=0.0108869170168 bus1=s_ncctt504->s_ncctt505_s.3 bus2=s_ncctt504->s_ncctt505_s_s.3 switch=n phases=1 Linecode=1P_Code6

New Line.clineacable(cramaee():s_ncctt1095->s_ncctt896) Units=mi Length=0.060396639829 bus1=s_ncctt896.1.2.3 bus2=s_ncctt1095.1.2.3 switch=n phases=3 Linecode=3P_Code1

New Line.clineacable(cramaee():s_ncctt889_bt->uclv22055) Units=mi Length=0.0265295591192 bus1=s_ncctt889_bt.1.2.3 bus2=uclv22055.1.2.3 switch=n phases=3 Linecode=3P_Code2

New Line.clineacable(cramaee():s_dummy1181->s_ncctt507_bt) Units=mi Length=0.000621371 bus1=s_ncctt507_bt.1.2 bus2=s_dummy1181.1.2 switch=n phases=2 Linecode=2P_Code8

New Line.clineacable(cramaee():s_dummy2331->s_dummy2332) Units=mi Length=0.000621371 bus1=s_dummy2332.1.2 bus2=s_dummy2331.1.2 switch=n phases=2 Linecode=2P_Code0

New Line.clineacable(cramaee():s_dummy41->uclv6879) Units=mi Length=0.0435274113726 bus1=s_dummy41.1.2 bus2=uclv6879.1.2 switch=n phases=2 Linecode=2P_Code0

New Line.clineacable(cramaee():s_ncctt1185->s_ncctt35) Units=mi Length=0.320684602132 bus1=s_ncctt35.1.2.3 bus2=s_ncctt1185.1.2.3 switch=n phases=3 Linecode=3P_Code1

New Line.clineacable(cramaee():s_ncctt1061->s_ncctt1117) Units=mi Length=0.0373471311324 bus1=s_ncctt1117.1.2.3 bus2=s_ncctt1061.1.2.3 switch=n phases=3 Linecode=3P_Code1

New Line.clineacable(cramaee():s_ncctt593->s_ncctt706) Units=mi Length=0.10224038434 bus1=s_ncctt593->s_ncctt706_s.1.2.3 bus2=s_ncctt593->s_ncctt706_s_s.1.2.3 switch=n phases=3 Linecode=3P_Code10

New Line.clineacable(cramaee():s_ncctt68_bt->uclv47469) Units=mi Length=0.021593884992 bus1=s_ncctt68_bt.1.2 bus2=uclv47469.1.2 switch=n phases=2 Linecode=2P_Code0

New Line.clineacable(cramaee():s_ncctt726_bt->uclv35567) Units=mi Length=0.000621371 bus1=s_ncctt726_bt.1.2 bus2=uclv35567.1.2 switch=n phases=2 Linecode=2P_Code0

New Line.switch(cramaee():s_ncctt1216->s_ncctt1220)_s_1055 Units=mi Length=0.000621371 bus1=s_ncctt1216.1 bus2=s_ncctt1216->s_ncctt1220_s.1 switch=y phases=3 Linecode=1P_Code4

New Line.clineacable(cramaee():s_ncctt1165->s_ncctt454) Units=mi Length=0.0620194744697 bus1=s_ncctt1165.1.2.3 bus2=s_ncctt454.1.2.3 switch=n phases=3 Linecode=3P_Code1

New Line.clineacable(cramaee():s_dummy103->uclv7815) Units=mi Length=0.0084894191504 bus1=s_dummy103.1.2 bus2=uclv7815.1.2 switch=n phases=2 Linecode=2P_Code0

New Line.clineacable(cramaee():s_dummy742->s_ncctt316_bt) Units=mi Length=0.0216010928956 bus1=s_ncctt316_bt.1.2 bus2=s_dummy742.1.2 switch=n phases=2 Linecode=2P_Code0

New Line.clineacable(cramaee():s_dummy1915->s_ncctt1077_bt) Units=mi Length=0.000621371 bus1=s_ncctt1077_bt.1.2 bus2=s_dummy1915.1.2 switch=n phases=2 Linecode=2P_Code3

New Line.clineacable(cramaee():s_ncctt117_bt->uclv60596) Units=mi Length=0.0084401444301 bus1=s_ncctt117_bt.1.2 bus2=uclv60596.1.2 switch=n phases=2 Linecode=2P_Code7

New Line.clineacable(cramaee():s_ncctt817_bt->uclv27653) Units=mi Length=0.0093101881043 bus1=s_ncctt817_bt.1.2 bus2=uclv27653.1.2 switch=n phases=2 Linecode=2P_Code7

New Line.clineacable(cramaee():s_dummy1482->s_dummy1483) Units=mi Length=0.0107612136635 bus1=s_dummy1482.1.2 bus2=s_dummy1483.1.2 switch=n phases=2 Linecode=2P_Code0

New Line.clineacable(cramaee():s_dummy2267->s_dummy2270) Units=mi Length=0.000621371 bus1=s_dummy2267.1.2 bus2=s_dummy2270.1.2 switch=n phases=2 Linecode=2P_Code8

New Line.clineacable(cramaee():s_dummy925->s_ncctt409_bt) Units=mi Length=0.000621371 bus1=s_ncctt409_bt.1.2 bus2=s_dummy925.1.2 switch=n phases=2 Linecode=2P_Code3

New Line.clineacable(cramaee():s_dummy611->uclv8182) Units=mi Length=0.0175518044999 bus1=s_dummy611.1.2 bus2=uclv8182.1.2 switch=n phases=2 Linecode=2P_Code0

New Line.clineacable(cramaee():s_ncctt703_bt->uclv34228) Units=mi Length=0.0121116392578 bus1=s_ncctt703_bt.1.2 bus2=uclv34228.1.2 switch=n phases=2 Linecode=2P_Code0

New Line.clineacable(cramaee():s_nssee2_69->s_nst0_69)sd3 Units=mi Length=0.405463840001 bus1=s_nssee2_69->s_nst0_69_s_s.1.2.3 bus2=s_nssee2_69->s_nst0_69_s.1.2.3 switch=n phases=3 Linecode=3P_Code1

New Line.clineacable(cramaee():s_ncctt551->s_ncctt821) Units=mi Length=0.0190432813112 bus1=s_ncctt551.1.2.3 bus2=s_ncctt821.1.2.3 switch=n phases=3 Linecode=3P_Code1

New Line.clineacable(cramaee():s_ncctt85_bt->uclv58398) Units=mi Length=0.0322170300193 bus1=s_ncctt85_bt.1.2.3 bus2=uclv58398.1.2.3 switch=n phases=3 Linecode=3P_Code2

New Line.clineacable(cramaee():s_ncctt876_bt->uclv51599) Units=mi Length=0.0256795235912 bus1=s_ncctt876_bt.1.2.3 bus2=uclv51599.1.2.3 switch=n phases=3 Linecode=3P_Code2

New Line.clineacable(cramaee():s_ncctt1389->s_ncctt735) Units=mi Length=0.0530415334391 bus1=s_ncctt1389.1.2.3 bus2=s_ncctt735.1.2.3 switch=n phases=3 Linecode=3P_Code1

New Line.clineacable(cramaee():s_ncctt68_bt->uclv62556) Units=mi Length=0.0093950673829 bus1=s_ncctt68_bt.1.2 bus2=uclv62556.1.2 switch=n phases=2 Linecode=2P_Code0

New Line.clineacable(cramaee():s_ncctt601_bt->uclv38639) Units=mi Length=0.0121385446221 bus1=s_ncctt601_bt.1.2 bus2=uclv38639.1.2 switch=n phases=2 Linecode=2P_Code0

New Line.clineacable(cramaee():s_ncctt1571_bt->uclv9969) Units=mi Length=0.000621371 bus1=s_ncctt1571_bt.1.2.3 bus2=uclv9969.1.2.3 switch=n phases=3 Linecode=3P_Code2

New Line.clineacable(cramaee():s_ncctt1588->s_ncctt850) Units=mi Length=0.0201747979022 bus1=s_ncctt1588.1.2.3 bus2=s_ncctt850.1.2.3 switch=n phases=3 Linecode=3P_Code1

New Line.clineacable(cramaee():s_ncctt578_bt->uclv38406) Units=mi Length=0.000621371 bus1=s_ncctt578_bt.1.2.3 bus2=uclv38406.1.2.3 switch=n phases=3 Linecode=3P_Code2

New Line.clineacable(cramaee():s_dummy1366->s_ncctt639_bt) Units=mi Length=0.000621371 bus1=s_ncctt639_bt.1.2 bus2=s_dummy1366.1.2 switch=n phases=2 Linecode=2P_Code3

New Line.clineacable(cramaee():s_ncctt438->s_ncctt738) Units=mi Length=0.0096149705798 bus1=s_ncctt438.1.2.3 bus2=s_ncctt738.1.2.3 switch=n phases=3 Linecode=3P_Code1

New Line.clineacable(cramaee():s_dummy1185->uclv7916) Units=mi Length=0.0204029031963 bus1=s_dummy1185.1.2 bus2=uclv7916.1.2 switch=n phases=2 Linecode=2P_Code7

New Line.clineacable(cramaee():s_dummy1018->s_ncctt138_bt) Units=mi Length=0.0095248096477 bus1=s_ncctt138_bt.1.2 bus2=s_dummy1018.1.2 switch=n phases=2 Linecode=2P_Code7

New Line.clineacable(cramaee():s_ncctt226->s_ncctt736) Units=mi Length=0.051512898642 bus1=s_ncctt736.1.2.3 bus2=s_ncctt226.1.2.3 switch=n phases=3 Linecode=3P_Code1

New Line.clineacable(cramaee():s_ncctt1297->s_ncctt173) Units=mi Length=0.0340831314065 bus1=s_ncctt1297.1.2.3 bus2=s_ncctt173.1.2.3 switch=n phases=3 Linecode=3P_Code1

New Line.clineacable(cramaee():s_ncctt1599_bt->uclv7785) Units=mi Length=0.0096410681618 bus1=s_ncctt1599_bt.1.2 bus2=uclv7785.1.2 switch=n phases=2 Linecode=2P_Code0

New Line.clineacable(cramaee():s_ncctt31_bt->uclv7687) Units=mi Length=0.0102558526292 bus1=s_ncctt31_bt.1.2 bus2=uclv7687.1.2 switch=n phases=2 Linecode=2P_Code7

New Line.clineacable(cramaee():s_dummy2512->s_ncctt1402_bt) Units=mi Length=0.000621371 bus1=s_ncctt1402_bt.1.2 bus2=s_dummy2512.1.2 switch=n phases=2 Linecode=2P_Code3

New Line.clineacable(cramaee():s_ncctt1334->s_nssee2_12.47) Units=mi Length=0.0095838398927 bus1=s_ncctt1334->s_nssee2_1247_s.1.2.3 bus2=s_ncctt1334.1.2.3 switch=n phases=3 Linecode=3P_Code1

New Line.clineacable(cramaee():s_dummy2672->uclv9643) Units=mi Length=0.0079700151315 bus1=s_dummy2672.1.2 bus2=uclv9643.1.2 switch=n phases=2 Linecode=2P_Code7

New Line.clineacable(cramaee():s_dummy2174->s_dummy2179) Units=mi Length=0.0162942738701 bus1=s_dummy2174.1.2 bus2=s_dummy2179.1.2 switch=n phases=2 Linecode=2P_Code7

New Line.clineacable(cramaee():s_dummy2068->s_ncctt1160_bt) Units=mi Length=0.000621371 bus1=s_ncctt1160_bt.1.2 bus2=s_dummy2068.1.2 switch=n phases=2 Linecode=2P_Code8

New Line.clineacable(cramaee():s_dummy294->s_dummy297) Units=mi Length=0.0154891013283 bus1=s_dummy297.1.2 bus2=s_dummy294.1.2 switch=n phases=2 Linecode=2P_Code0

New Line.clineacable(cramaee():s_ncctt642->s_ncctt729) Units=mi Length=0.000621371 bus1=s_ncctt642.1.2.3 bus2=s_ncctt729.1.2.3 switch=n phases=3 Linecode=3P_Code1

New Line.clineacable(cramaee():s_dummy606->uclv29817) Units=mi Length=0.0456792191456 bus1=s_dummy606.1.2 bus2=uclv29817.1.2 switch=n phases=2 Linecode=2P_Code0

New Line.fuse(cramaee():s_ncctt1057->s_ncctt1215)_s_1775 Units=mi Length=0.000621371 bus1=s_ncctt1215.2 bus2=s_ncctt1057->s_ncctt1215_s_s_s.2 switch=y phases=3 Linecode=1P_Code4

New Line.clineacable(cramaee():s_ncctt1435_bt->uclv53733) Units=mi Length=0.0141161821038 bus1=s_ncctt1435_bt.1.2.3 bus2=uclv53733.1.2.3 switch=n phases=3 Linecode=3P_Code2

New Line.clineacable(cramaee():s_dummy153->s_dummy157) Units=mi Length=0.0121923553507 bus1=s_dummy157.1.2 bus2=s_dummy153.1.2 switch=n phases=2 Linecode=2P_Code0

New Line.clineacable(cramaee():s_dummy2181->uclv19355) Units=mi Length=0.0103875211441 bus1=s_dummy2181.1.2 bus2=uclv19355.1.2 switch=n phases=2 Linecode=2P_Code7

New Line.clineacable(cramaee():s_dummy463->uclv9246) Units=mi Length=0.0183725113167 bus1=s_dummy463.1.2 bus2=uclv9246.1.2 switch=n phases=2 Linecode=2P_Code7

New Line.clineacable(cramaee():s_ncctt548->s_ncctt846) Units=mi Length=0.0182604781254 bus1=s_ncctt548.1.2.3 bus2=s_ncctt846.1.2.3 switch=n phases=3 Linecode=3P_Code1

New Line.clineacable(cramaee():s_dummy1983->s_ncctt923_bt) Units=mi Length=0.000621371 bus1=s_ncctt923_bt.1.2 bus2=s_dummy1983.1.2 switch=n phases=2 Linecode=2P_Code0

New Line.clineacable(cramaee():s_dummy168->uclv59161) Units=mi Length=0.00421983609407 bus1=s_dummy168.1.2 bus2=uclv59161.1.2 switch=n phases=2 Linecode=2P_Code0

New Line.clineacable(cramaee():s_ncctt1450_bt->uclv53673) Units=mi Length=0.008068502435 bus1=s_ncctt1450_bt.1.2.3 bus2=uclv53673.1.2.3 switch=n phases=3 Linecode=3P_Code2

New Line.clineacable(cramaee():s_dummy500->uclv41853) Units=mi Length=0.0327914875088 bus1=s_dummy500.1.2 bus2=uclv41853.1.2 switch=n phases=2 Linecode=2P_Code0

New Line.clineacable(cramaee():s_dummy1162->uclv7892) Units=mi Length=0.0137293165192 bus1=s_dummy1162.1.2 bus2=uclv7892.1.2 switch=n phases=2 Linecode=2P_Code7

New Line.clineacable(cramaee():s_dummy445->uclv9242) Units=mi Length=0.0190307917541 bus1=s_dummy445.1.2 bus2=uclv9242.1.2 switch=n phases=2 Linecode=2P_Code7

New Line.clineacable(cramaee():s_dummy638->uclv48484) Units=mi Length=0.0131003026559 bus1=s_dummy638.1.2 bus2=uclv48484.1.2 switch=n phases=2 Linecode=2P_Code0

New Line.clineacable(cramaee():ucmv100->ucmv61) Units=mi Length=0.154763010857 bus1=ucmv100->ucmv61_s_s.1.2.3 bus2=ucmv100->ucmv61_s.1.2.3 switch=n phases=3 Linecode=3P_Code10

New Line.clineacable(cramaee():s_dummy97->s_ncctt56_bt) Units=mi Length=0.000621371 bus1=s_ncctt56_bt.1.2 bus2=s_dummy97.1.2 switch=n phases=2 Linecode=2P_Code3

New Line.clineacable(cramaee():s_dummy2181->s_dummy2182) Units=mi Length=0.0163141577421 bus1=s_dummy2182.1.2 bus2=s_dummy2181.1.2 switch=n phases=2 Linecode=2P_Code7

New Line.clineacable(cramaee():s_dummy748->uclv31037) Units=mi Length=0.0257176136335 bus1=s_dummy748.1.2 bus2=uclv31037.1.2 switch=n phases=2 Linecode=2P_Code0

New Line.clineacable(cramaee():s_dummy260->s_dummy267) Units=mi Length=0.0135854691327 bus1=s_dummy260.1.2 bus2=s_dummy267.1.2 switch=n phases=2 Linecode=2P_Code0

New Line.clineacable(cramaee():s_dummy420->s_dummy422) Units=mi Length=0.0207541642226 bus1=s_dummy420.1.2 bus2=s_dummy422.1.2 switch=n phases=2 Linecode=2P_Code0

New Line.clineacable(cramaee():s_dummy1586->s_ncctt820_bt) Units=mi Length=0.0399058747733 bus1=s_ncctt820_bt.1.2 bus2=s_dummy1586.1.2 switch=n phases=2 Linecode=2P_Code0

New Line.clineacable(cramaee():s_ncctt353_bt->uclv37313) Units=mi Length=0.000621371 bus1=s_ncctt353_bt.1.2 bus2=uclv37313.1.2 switch=n phases=2 Linecode=2P_Code7

New Line.clineacable(cramaee():s_dummy1264->s_ncctt559_bt) Units=mi Length=0.000621371 bus1=s_ncctt559_bt.1.2 bus2=s_dummy1264.1.2 switch=n phases=2 Linecode=2P_Code8

New Line.clineacable(cramaee():s_ncctt625->s_ncctt807) Units=mi Length=0.0374234354912 bus1=s_ncctt807.1.2.3 bus2=s_ncctt625.1.2.3 switch=n phases=3 Linecode=3P_Code1

New Line.clineacable(cramaee():s_ncctt1187->s_ncctt895) Units=mi Length=0.191169759118 bus1=s_ncctt1187.1.2.3 bus2=s_ncctt895.1.2.3 switch=n phases=3 Linecode=3P_Code1

New Line.clineacable(cramaee():s_dummy1344->s_ncctt619_bt) Units=mi Length=0.000621371 bus1=s_ncctt619_bt.1.2 bus2=s_dummy1344.1.2 switch=n phases=2 Linecode=2P_Code8

New Line.clineacable(cramaee():s_ncctt1057->s_ncctt1215) Units=mi Length=0.01229071838 bus1=s_ncctt1057->s_ncctt1215_s_s.2 bus2=s_ncctt1057->s_ncctt1215_s.2 switch=n phases=1 Linecode=1P_Code6

New Line.clineacable(cramaee():s_ncctt1579_bt->uclv10028) Units=mi Length=0.005308993824 bus1=s_ncctt1579_bt.1.2.3 bus2=uclv10028.1.2.3 switch=n phases=3 Linecode=3P_Code2

New Line.clineacable(cramaee():s_dummy1125->uclv10075) Units=mi Length=0.0082621216386 bus1=s_dummy1125.1.2 bus2=uclv10075.1.2 switch=n phases=2 Linecode=2P_Code0

New Line.clineacable(cramaee():s_dummy1090->uclv9526) Units=mi Length=0.00229150440122 bus1=s_dummy1090.1.2 bus2=uclv9526.1.2 switch=n phases=2 Linecode=2P_Code7

New Line.clineacable(cramaee():s_dummy182->s_ncctt61_bt) Units=mi Length=0.00294414278994 bus1=s_ncctt61_bt.1.2 bus2=s_dummy182.1.2 switch=n phases=2 Linecode=2P_Code0

New Line.clineacable(cramaee():s_ncctt1463->s_ncctt366) Units=mi Length=0.147182284657 bus1=s_ncctt1463->s_ncctt366_s_s.1.2.3 bus2=s_ncctt1463->s_ncctt366_s.1.2.3 switch=n phases=3 Linecode=3P_Code10

New Line.clineacable(cramaee():s_ncctt693->s_ncctt825) Units=mi Length=0.0300080561143 bus1=s_ncctt693.1.2.3 bus2=s_ncctt825.1.2.3 switch=n phases=3 Linecode=3P_Code1

New Line.clineacable(cramaee():s_dummy2155->uclv19332) Units=mi Length=0.0080634693299 bus1=s_dummy2155.1.2 bus2=uclv19332.1.2 switch=n phases=2 Linecode=2P_Code7

New Line.clineacable(cramaee():s_ncctt1429_bt->uclv52911) Units=mi Length=0.00337662321965 bus1=s_ncctt1429_bt.1.2.3 bus2=uclv52911.1.2.3 switch=n phases=3 Linecode=3P_Code2

New Line.clineacable(cramaee():s_ncctt1514->s_ncctt1537) Units=mi Length=0.0233992784325 bus1=s_ncctt1537.1.2.3 bus2=s_ncctt1514.1.2.3 switch=n phases=3 Linecode=3P_Code1

New Line.clineacable(cramaee():s_ncctt1448_bt->uclv53248) Units=mi Length=0.0154551744717 bus1=s_ncctt1448_bt.1.2 bus2=uclv53248.1.2 switch=n phases=2 Linecode=2P_Code0

New Line.switch(cramaee():s_ncctt397->s_ncctt5)_s_1372 Units=mi Length=0.000621371 bus1=s_ncctt5.1.2.3 bus2=s_ncctt397->s_ncctt5_s_s.1.2.3 switch=y phases=3 Linecode=3P_Code5

New Line.clineacable(cramaee():s_dummy803->s_ncctt347_bt) Units=mi Length=0.000621371 bus1=s_ncctt347_bt.1.2 bus2=s_dummy803.1.2 switch=n phases=2 Linecode=2P_Code0

New Line.clineacable(cramaee():s_ncctt107->s_ncctt189) Units=mi Length=0.039795084324 bus1=s_ncctt107.1.2.3 bus2=s_ncctt189.1.2.3 switch=n phases=3 Linecode=3P_Code1

New Line.clineacable(cramaee():s_ncctt759_bt->uclv34767) Units=mi Length=0.0159130627616 bus1=s_ncctt759_bt.1.2.3 bus2=uclv34767.1.2.3 switch=n phases=3 Linecode=3P_Code2

New Line.clineacable(cramaee():s_dummy690->uclv11364) Units=mi Length=0.0093900964149 bus1=s_dummy690.1.2 bus2=uclv11364.1.2 switch=n phases=2 Linecode=2P_Code0

New Line.clineacable(cramaee():s_dummy2633->uclv7787) Units=mi Length=0.0076532401957 bus1=s_dummy2633.1.2 bus2=uclv7787.1.2 switch=n phases=2 Linecode=2P_Code0

New Line.clineacable(cramaee():s_dummy1427->s_ncctt681_bt) Units=mi Length=0.000621371 bus1=s_ncctt681_bt.1.2 bus2=s_dummy1427.1.2 switch=n phases=2 Linecode=2P_Code8

New Line.clineacable(cramaee():s_dummy601->s_dummy615) Units=mi Length=0.0316634505954 bus1=s_dummy615.1.2 bus2=s_dummy601.1.2 switch=n phases=2 Linecode=2P_Code0

New Line.clineacable(cramaee():s_dummy963->s_dummy964) Units=mi Length=0.0227300618655 bus1=s_dummy964.1.2 bus2=s_dummy963.1.2 switch=n phases=2 Linecode=2P_Code7

New Line.clineacable(cramaee():s_ncctt1135->s_ncctt247) Units=mi Length=0.0293376589424 bus1=s_ncctt247.1.2.3 bus2=s_ncctt1135.1.2.3 switch=n phases=3 Linecode=3P_Code1

New Line.switch(cramaee():s_ncctt1347->s_ncctt425)_s_1446 Units=mi Length=0.000621371 bus1=s_ncctt1347.1.2.3 bus2=s_ncctt1347->s_ncctt425_s.1.2.3 switch=y phases=3 Linecode=3P_Code5

New Line.switch(cramaee():s_ncctt1347->s_ncctt425)_s_1447 Units=mi Length=0.000621371 bus1=s_ncctt1347->s_ncctt425_s_s.1.2.3 bus2=s_ncctt425.1.2.3 switch=y phases=3 Linecode=3P_Code5

New Line.clineacable(cramaee():s_dummy505->s_ncctt262_bt) Units=mi Length=0.000621371 bus1=s_ncctt262_bt.1.2.3 bus2=s_dummy505.1.2.3 switch=n phases=3 Linecode=3P_Code2

New Line.clineacable(cramaee():s_dummy957->s_dummy958) Units=mi Length=0.0140018498398 bus1=s_dummy957.1.2 bus2=s_dummy958.1.2 switch=n phases=2 Linecode=2P_Code0

New Line.clineacable(cramaee():s_dummy476->s_ncctt251_bt) Units=mi Length=0.000621371 bus1=s_ncctt251_bt.1.2.3 bus2=s_dummy476.1.2.3 switch=n phases=3 Linecode=3P_Code2

New Line.clineacable(cramaee():s_dummy881->uclv10963) Units=mi Length=0.0243543256595 bus1=s_dummy881.1.2 bus2=uclv10963.1.2 switch=n phases=2 Linecode=2P_Code0

New Line.clineacable(cramaee():s_dummy1722->s_ncctt962_bt) Units=mi Length=0.000621371 bus1=s_ncctt962_bt.1.2 bus2=s_dummy1722.1.2 switch=n phases=2 Linecode=2P_Code3

New Line.clineacable(cramaee():s_dummy32->s_ncctt36_bt) Units=mi Length=0.000621371 bus1=s_ncctt36_bt.1.2 bus2=s_dummy32.1.2 switch=n phases=2 Linecode=2P_Code8

New Line.clineacable(cramaee():s_ncctt105->s_ncctt106) Units=mi Length=0.079192491208 bus1=s_ncctt106.1 bus2=s_ncctt105.1 switch=n phases=1 Linecode=1P_Code9

New Line.clineacable(cramaee():s_dummy131->uclv59502) Units=mi Length=0.0076569684217 bus1=s_dummy131.1.2 bus2=uclv59502.1.2 switch=n phases=2 Linecode=2P_Code0

New Line.clineacable(cramaee():s_ncctt1075->s_ncctt597) Units=mi Length=0.06500783402 bus1=s_ncctt1075.1.2.3 bus2=s_ncctt597.1.2.3 switch=n phases=3 Linecode=3P_Code1

New Line.clineacable(cramaee():s_ncctt417_bt->uclv46569) Units=mi Length=0.0206677315165 bus1=s_ncctt417_bt.1.2.3 bus2=uclv46569.1.2.3 switch=n phases=3 Linecode=3P_Code2

New Line.clineacable(cramaee():s_ncctt713_bt->uclv34244) Units=mi Length=0.0152609338971 bus1=s_ncctt713_bt.1.2.3 bus2=uclv34244.1.2.3 switch=n phases=3 Linecode=3P_Code2

New Line.clineacable(cramaee():s_dummy639->s_dummy644) Units=mi Length=0.0162578615295 bus1=s_dummy639.1.2 bus2=s_dummy644.1.2 switch=n phases=2 Linecode=2P_Code0

New Line.clineacable(cramaee():s_dummy1753->s_dummy1754) Units=mi Length=0.0088864752194 bus1=s_dummy1753.1.2 bus2=s_dummy1754.1.2 switch=n phases=2 Linecode=2P_Code7

New Line.switch(cramaee():s_ncctt1279->s_ncctt709)_s_1636 Units=mi Length=0.000621371 bus1=s_ncctt1279->s_ncctt709_s.1.2.3 bus2=s_ncctt1279.1.2.3 switch=y phases=3 Linecode=3P_Code5

New Line.switch(cramaee():s_ncctt1279->s_ncctt709)_s_1635 Units=mi Length=0.000621371 bus1=s_ncctt709.1.2.3 bus2=s_ncctt1279->s_ncctt709_s_s.1.2.3 switch=y phases=3 Linecode=3P_Code5

New Line.clineacable(cramaee():s_ncctt1457->s_ncctt266) Units=mi Length=0.0442403103209 bus1=s_ncctt1457->s_ncctt266_s_s.1.2.3 bus2=s_ncctt1457->s_ncctt266_s.1.2.3 switch=n phases=3 Linecode=3P_Code10

New Line.clineacable(cramaee():s_dummy423->s_dummy424) Units=mi Length=0.0095692998113 bus1=s_dummy424.1.2 bus2=s_dummy423.1.2 switch=n phases=2 Linecode=2P_Code0

New Line.clineacable(cramaee():s_dummy1489->s_ncctt760_bt) Units=mi Length=0.000621371 bus1=s_ncctt760_bt.1.2 bus2=s_dummy1489.1.2 switch=n phases=2 Linecode=2P_Code3

New Line.clineacable(cramaee():s_dummy2659->s_ncctt1496_bt) Units=mi Length=0.000621371 bus1=s_ncctt1496_bt.1.2 bus2=s_dummy2659.1.2 switch=n phases=2 Linecode=2P_Code8

New Line.clineacable(cramaee():s_ncctt1002_bt->uclv9990) Units=mi Length=0.000621371 bus1=s_ncctt1002_bt.1.2.3 bus2=uclv9990.1.2.3 switch=n phases=3 Linecode=3P_Code2

New Line.clineacable(cramaee():s_dummy562->uclv42961) Units=mi Length=0.020487223241 bus1=s_dummy562.1.2.3 bus2=uclv42961.1.2.3 switch=n phases=3 Linecode=3P_Code2

New Line.clineacable(cramaee():s_dummy1587->s_dummy1595) Units=mi Length=0.000621371 bus1=s_dummy1587.1.2 bus2=s_dummy1595.1.2 switch=n phases=2 Linecode=2P_Code3

New Line.clineacable(cramaee():s_ncctt1190->s_ncctt1210) Units=mi Length=0.073288223966 bus1=s_ncctt1210.1.2.3 bus2=s_ncctt1190.1.2.3 switch=n phases=3 Linecode=3P_Code1

New Line.clineacable(cramaee():s_dummy1444->s_ncctt696_bt) Units=mi Length=0.000621371 bus1=s_ncctt696_bt.1.2 bus2=s_dummy1444.1.2 switch=n phases=2 Linecode=2P_Code3

New Line.clineacable(cramaee():s_dummy338->s_ncctt94_bt) Units=mi Length=0.000621371 bus1=s_ncctt94_bt.1.2 bus2=s_dummy338.1.2 switch=n phases=2 Linecode=2P_Code8

New Line.clineacable(cramaee():s_ncctt1149_bt->uclv12821) Units=mi Length=0.0287513954039 bus1=s_ncctt1149_bt.1.2.3 bus2=uclv12821.1.2.3 switch=n phases=3 Linecode=3P_Code2

New Line.clineacable(cramaee():s_ncctt1147->s_ncctt143) Units=mi Length=0.0584620012205 bus1=s_ncctt1147->s_ncctt143_s.1.2.3 bus2=s_ncctt143.1.2.3 switch=n phases=3 Linecode=3P_Code1

New Line.clineacable(cramaee():s_ncctt948_bt->uclv12574) Units=mi Length=0.000621371 bus1=s_ncctt948_bt.1.2.3 bus2=uclv12574.1.2.3 switch=n phases=3 Linecode=3P_Code2

New Line.clineacable(cramaee():s_ncctt1229_bt->uclv7715) Units=mi Length=0.0309983972141 bus1=s_ncctt1229_bt.1.2 bus2=uclv7715.1.2 switch=n phases=2 Linecode=2P_Code7

New Line.clineacable(cramaee():s_ncctt1361->s_ncctt232) Units=mi Length=0.0422206060225 bus1=s_ncctt232.1.2.3 bus2=s_ncctt1361.1.2.3 switch=n phases=3 Linecode=3P_Code1

New Line.clineacable(cramaee():s_ncctt1202_bt->uclv19868) Units=mi Length=0.0199034451865 bus1=s_ncctt1202_bt.1.2.3 bus2=uclv19868.1.2.3 switch=n phases=3 Linecode=3P_Code2

New Line.clineacable(cramaee():s_dummy408->s_ncctt19_bt) Units=mi Length=0.000621371 bus1=s_ncctt19_bt.1.2 bus2=s_dummy408.1.2 switch=n phases=2 Linecode=2P_Code3

New Line.clineacable(cramaee():s_dummy1826->s_dummy1831) Units=mi Length=0.0120117849381 bus1=s_dummy1826.1.2 bus2=s_dummy1831.1.2 switch=n phases=2 Linecode=2P_Code0

New Line.clineacable(cramaee():s_dummy768->uclv44531) Units=mi Length=0.0187380017389 bus1=s_dummy768.1.2 bus2=uclv44531.1.2 switch=n phases=2 Linecode=2P_Code0

New Line.clineacable(cramaee():s_dummy430->s_ncctt8_bt) Units=mi Length=0.0095692998113 bus1=s_ncctt8_bt.1.2 bus2=s_dummy430.1.2 switch=n phases=2 Linecode=2P_Code0

New Line.clineacable(cramaee():s_ncctt82_bt->uclv58815) Units=mi Length=0.00581040293874 bus1=s_ncctt82_bt.1.2.3 bus2=uclv58815.1.2.3 switch=n phases=3 Linecode=3P_Code2

New Line.clineacable(cramaee():s_dummy2303->s_dummy2315) Units=mi Length=0.0096037237647 bus1=s_dummy2303.1.2 bus2=s_dummy2315.1.2 switch=n phases=2 Linecode=2P_Code7

New Line.clineacable(cramaee():s_dummy607->uclv31237) Units=mi Length=0.0220180328366 bus1=s_dummy607.1.2 bus2=uclv31237.1.2 switch=n phases=2 Linecode=2P_Code0

New Line.clineacable(cramaee():s_dummy919->s_ncctt425_bt) Units=mi Length=0.000621371 bus1=s_ncctt425_bt.1.2 bus2=s_dummy919.1.2 switch=n phases=2 Linecode=2P_Code8

New Line.clineacable(cramaee():s_dummy132->s_dummy141) Units=mi Length=0.0085893356072 bus1=s_dummy141.1.2 bus2=s_dummy132.1.2 switch=n phases=2 Linecode=2P_Code0

New Line.clineacable(cramaee():s_ncctt1310->s_ncctt272) Units=mi Length=0.0193702467314 bus1=s_ncctt1310.1.2.3 bus2=s_ncctt272.1.2.3 switch=n phases=3 Linecode=3P_Code1

New Line.clineacable(cramaee():s_dummy1923->s_ncctt1068_bt) Units=mi Length=0.000621371 bus1=s_ncctt1068_bt.1.2 bus2=s_dummy1923.1.2 switch=n phases=2 Linecode=2P_Code3

New Line.clineacable(cramaee():s_ncctt1099_bt->uclv18397) Units=mi Length=0.0079333542425 bus1=s_ncctt1099_bt.1.2.3 bus2=uclv18397.1.2.3 switch=n phases=3 Linecode=3P_Code2

New Line.clineacable(cramaee():s_ncctt812_bt->uclv28083) Units=mi Length=0.0193297333422 bus1=s_ncctt812_bt.1.2.3 bus2=uclv28083.1.2.3 switch=n phases=3 Linecode=3P_Code2

New Line.clineacable(cramaee():s_dummy1910->s_ncctt1060_bt) Units=mi Length=0.000621371 bus1=s_ncctt1060_bt.1.2 bus2=s_dummy1910.1.2 switch=n phases=2 Linecode=2P_Code3

New Line.clineacable(cramaee():s_dummy1341->s_ncctt617_bt) Units=mi Length=0.000621371 bus1=s_ncctt617_bt.1.2 bus2=s_dummy1341.1.2 switch=n phases=2 Linecode=2P_Code3

New Line.clineacable(cramaee():s_dummy1040->uclv7933) Units=mi Length=0.0037903631 bus1=s_dummy1040.1.2 bus2=uclv7933.1.2 switch=n phases=2 Linecode=2P_Code7

New Line.clineacable(cramaee():s_ncctt565->s_ncctt676) Units=mi Length=0.0532990295815 bus1=s_ncctt676.1.2.3 bus2=s_ncctt565.1.2.3 switch=n phases=3 Linecode=3P_Code1

New Line.clineacable(cramaee():s_dummy978->s_ncctt447_bt) Units=mi Length=0.0096664822357 bus1=s_ncctt447_bt.1.2 bus2=s_dummy978.1.2 switch=n phases=2 Linecode=2P_Code0

New Line.clineacable(cramaee():s_ncctt1326->s_ncctt1360) Units=mi Length=0.099608256784 bus1=s_ncctt1360.1.2.3 bus2=s_ncctt1326.1.2.3 switch=n phases=3 Linecode=3P_Code1

New Line.clineacable(cramaee():s_ncctt1193->s_ncctt608) Units=mi Length=0.0235465433595 bus1=s_ncctt608.1.2.3 bus2=s_ncctt1193.1.2.3 switch=n phases=3 Linecode=3P_Code1

New Line.clineacable(cramaee():s_ncctt1460_bt->uclv54079) Units=mi Length=0.0065668351393 bus1=s_ncctt1460_bt.1.2 bus2=uclv54079.1.2 switch=n phases=2 Linecode=2P_Code0

New Line.clineacable(cramaee():s_dummy482->s_ncctt256_bt) Units=mi Length=0.000621371 bus1=s_ncctt256_bt.1.2.3 bus2=s_dummy482.1.2.3 switch=n phases=3 Linecode=3P_Code2

New Line.clineacable(cramaee():s_dummy1399->s_dummy1400) Units=mi Length=0.0276705205494 bus1=s_dummy1400.1.2 bus2=s_dummy1399.1.2 switch=n phases=2 Linecode=2P_Code0

New Line.clineacable(cramaee():s_ncctt582_bt->uclv31900) Units=mi Length=0.0253012950635 bus1=s_ncctt582_bt.1.2.3 bus2=uclv31900.1.2.3 switch=n phases=3 Linecode=3P_Code2

New Line.clineacable(cramaee():s_dummy1592->s_dummy1596) Units=mi Length=0.0174606493742 bus1=s_dummy1592.1.2 bus2=s_dummy1596.1.2 switch=n phases=2 Linecode=2P_Code7

New Line.clineacable(cramaee():s_ncctt397->s_ncctt5) Units=mi Length=0.102554176695 bus1=s_ncctt397->s_ncctt5_s_s.1.2.3 bus2=s_ncctt397->s_ncctt5_s.1.2.3 switch=n phases=3 Linecode=3P_Code10

New Line.clineacable(cramaee():s_dummy365->uclv54567) Units=mi Length=0.0499738248121 bus1=s_dummy365.1.2 bus2=uclv54567.1.2 switch=n phases=2 Linecode=2P_Code0

New Line.clineacable(cramaee():s_dummy2372->s_ncctt1462_bt) Units=mi Length=0.000621371 bus1=s_ncctt1462_bt.1.2 bus2=s_dummy2372.1.2 switch=n phases=2 Linecode=2P_Code3

New Line.clineacable(cramaee():s_dummy448->uclv23205) Units=mi Length=0.0173094076728 bus1=s_dummy448.1.2 bus2=uclv23205.1.2 switch=n phases=2 Linecode=2P_Code7

New Line.clineacable(cramaee():s_dummy702->s_ncctt372_bt) Units=mi Length=0.000621371 bus1=s_ncctt372_bt.1.2 bus2=s_dummy702.1.2 switch=n phases=2 Linecode=2P_Code0

New Line.clineacable(cramaee():s_dummy1129->s_ncctt146_bt) Units=mi Length=0.000621371 bus1=s_ncctt146_bt.1.2 bus2=s_dummy1129.1.2 switch=n phases=2 Linecode=2P_Code3

New Line.clineacable(cramaee():s_ncctt328->s_ncctt66) Units=mi Length=0.0255853858847 bus1=s_ncctt328.1.2.3 bus2=s_ncctt66.1.2.3 switch=n phases=3 Linecode=3P_Code1

New Line.switch(cramaee():ucmv84->ucmv93)_s_829 Units=mi Length=0.000621371 bus1=ucmv84->ucmv93_s_s.1.2.3 bus2=ucmv93.1.2.3 switch=y phases=3 Linecode=3P_Code5

New Line.clineacable(cramaee():s_ncctt119->s_ncctt1255) Units=mi Length=0.0556468177679 bus1=s_ncctt119->s_ncctt1255_s.1.2.3 bus2=s_ncctt119->s_ncctt1255_s_s.1.2.3 switch=n phases=3 Linecode=3P_Code10

New Line.clineacable(cramaee():s_ncctt1032_bt->uclv11361) Units=mi Length=0.0097682006684 bus1=s_ncctt1032_bt.1.2 bus2=uclv11361.1.2 switch=n phases=2 Linecode=2P_Code0

New Line.clineacable(cramaee():s_dummy2269->s_dummy2276) Units=mi Length=0.000621371 bus1=s_dummy2269.1.2 bus2=s_dummy2276.1.2 switch=n phases=2 Linecode=2P_Code7

New Line.clineacable(cramaee():s_dummy2128->s_dummy2135) Units=mi Length=0.000621371 bus1=s_dummy2128.1.2 bus2=s_dummy2135.1.2 switch=n phases=2 Linecode=2P_Code3

New Line.clineacable(cramaee():s_ncctt215_bt->uclv40938) Units=mi Length=0.00207253326082 bus1=s_ncctt215_bt.1.2 bus2=uclv40938.1.2 switch=n phases=2 Linecode=2P_Code0

New Line.clineacable(cramaee():s_ncctt65_bt->uclv49016) Units=mi Length=0.0063492310151 bus1=s_ncctt65_bt.1.2 bus2=uclv49016.1.2 switch=n phases=2 Linecode=2P_Code0

New Line.clineacable(cramaee():s_ncctt199->ucmv112) Units=mi Length=0.081152295342 bus1=s_ncctt199.1.2.3 bus2=ucmv112.1.2.3 switch=n phases=3 Linecode=3P_Code1

New Line.clineacable(cramaee():s_dummy72->s_dummy78) Units=mi Length=0.000621371 bus1=s_dummy72.1.2 bus2=s_dummy78.1.2 switch=n phases=2 Linecode=2P_Code8

New Line.clineacable(cramaee():s_ncctt721->s_ncctt751) Units=mi Length=0.1011591988 bus1=s_ncctt751.1 bus2=s_ncctt721.1 switch=n phases=1 Linecode=1P_Code9

New Line.clineacable(cramaee():s_dummy2347->s_ncctt1477_bt) Units=mi Length=0.000621371 bus1=s_ncctt1477_bt.1.2 bus2=s_dummy2347.1.2 switch=n phases=2 Linecode=2P_Code3

New Line.clineacable(cramaee():s_dummy259->s_dummy263) Units=mi Length=0.000621371 bus1=s_dummy259.1.2 bus2=s_dummy263.1.2 switch=n phases=2 Linecode=2P_Code0

New Line.clineacable(cramaee():s_dummy1070->uclv9514) Units=mi Length=0.00393480700266 bus1=s_dummy1070.1.2 bus2=uclv9514.1.2 switch=n phases=2 Linecode=2P_Code0

New Line.clineacable(cramaee():s_ncctt765_bt->uclv35279) Units=mi Length=0.0239913828584 bus1=s_ncctt765_bt.1.2.3 bus2=uclv35279.1.2.3 switch=n phases=3 Linecode=3P_Code2

New Line.clineacable(cramaee():s_dummy2164->s_ncctt1215_bt) Units=mi Length=0.000621371 bus1=s_ncctt1215_bt.1.2 bus2=s_dummy2164.1.2 switch=n phases=2 Linecode=2P_Code8

New Line.clineacable(cramaee():s_ncctt107->s_ncctt1287) Units=mi Length=0.000621371 bus1=s_ncctt107.3 bus2=s_ncctt1287.3 switch=n phases=1 Linecode=1P_Code9

New Line.clineacable(cramaee():s_dummy1257->s_dummy1262) Units=mi Length=0.000621371 bus1=s_dummy1257.1.2 bus2=s_dummy1262.1.2 switch=n phases=2 Linecode=2P_Code3

New Line.clineacable(cramaee():s_dummy1195->s_ncctt526_bt) Units=mi Length=0.000621371 bus1=s_ncctt526_bt.1.2 bus2=s_dummy1195.1.2 switch=n phases=2 Linecode=2P_Code3

New Line.clineacable(cramaee():s_dummy1380->s_ncctt647_bt) Units=mi Length=0.000621371 bus1=s_ncctt647_bt.1.2 bus2=s_dummy1380.1.2 switch=n phases=2 Linecode=2P_Code3

New Line.clineacable(cramaee():s_dummy2066->s_ncctt1158_bt) Units=mi Length=0.000621371 bus1=s_ncctt1158_bt.1.2 bus2=s_dummy2066.1.2 switch=n phases=2 Linecode=2P_Code3

New Line.clineacable(cramaee():s_ncctt1570_bt->uclv10018) Units=mi Length=0.0132680106888 bus1=s_ncctt1570_bt.1.2 bus2=uclv10018.1.2 switch=n phases=2 Linecode=2P_Code7

New Line.clineacable(cramaee():s_ncctt147->s_ncctt65) Units=mi Length=0.0402685068889 bus1=s_ncctt65.2 bus2=s_ncctt147.2 switch=n phases=1 Linecode=1P_Code9

New Line.clineacable(cramaee():s_dummy752->s_ncctt322_bt) Units=mi Length=0.0103768957 bus1=s_ncctt322_bt.1.2 bus2=s_dummy752.1.2 switch=n phases=2 Linecode=2P_Code0

New Line.clineacable(cramaee():s_dummy628->uclv40757) Units=mi Length=0.0300124678484 bus1=s_dummy628.1.2 bus2=uclv40757.1.2 switch=n phases=2 Linecode=2P_Code0

New Line.clineacable(cramaee():s_dummy194->uclv58617) Units=mi Length=0.0078563663756 bus1=s_dummy194.1.2 bus2=uclv58617.1.2 switch=n phases=2 Linecode=2P_Code0

New Line.clineacable(cramaee():s_dummy845->uclv37536) Units=mi Length=0.00778577863 bus1=s_dummy845.1.2 bus2=uclv37536.1.2 switch=n phases=2 Linecode=2P_Code0

New Line.switch(cramaee():s_ncctt1559->s_ncctt315)_s_686 Units=mi Length=0.000621371 bus1=s_ncctt1559->s_ncctt315_s.1.2.3 bus2=s_ncctt1559.1.2.3 switch=y phases=3 Linecode=3P_Code5

New Line.clineacable(cramaee():s_ncctt1427->s_ncctt154) Units=mi Length=0.188742683992 bus1=s_ncctt154.1.2.3 bus2=s_ncctt1427.1.2.3 switch=n phases=3 Linecode=3P_Code1

New Line.clineacable(cramaee():s_ncctt254->s_ncctt475) Units=mi Length=0.0299079532462 bus1=s_ncctt254.1.2.3 bus2=s_ncctt475.1.2.3 switch=n phases=3 Linecode=3P_Code1

New Line.clineacable(cramaee():s_ncctt443->s_ncctt629) Units=mi Length=0.134664765862 bus1=s_ncctt629.3 bus2=s_ncctt443.3 switch=n phases=1 Linecode=1P_Code9

New Line.clineacable(cramaee():s_ncctt634->s_ncctt845) Units=mi Length=0.083130740606 bus1=s_ncctt634.1.2.3 bus2=s_ncctt845.1.2.3 switch=n phases=3 Linecode=3P_Code1

New Line.clineacable(cramaee():s_ncctt818_bt->uclv27349) Units=mi Length=0.012286990154 bus1=s_ncctt818_bt.1.2 bus2=uclv27349.1.2 switch=n phases=2 Linecode=2P_Code0

New Line.clineacable(cramaee():s_ncctt1500->s_ncctt1522) Units=mi Length=0.0241816466586 bus1=s_ncctt1500.1.2.3 bus2=s_ncctt1522.1.2.3 switch=n phases=3 Linecode=3P_Code1

New Line.clineacable(cramaee():s_dummy2408->s_ncctt1309_bt) Units=mi Length=0.0111889654599 bus1=s_ncctt1309_bt.1.2 bus2=s_dummy2408.1.2 switch=n phases=2 Linecode=2P_Code0

New Line.clineacable(cramaee():s_dummy2570->s_ncctt1544_bt) Units=mi Length=0.000621371 bus1=s_ncctt1544_bt.1.2 bus2=s_dummy2570.1.2 switch=n phases=2 Linecode=2P_Code3

New Line.clineacable(cramaee():s_dummy836->uclv38643) Units=mi Length=0.0108883461701 bus1=s_dummy836.1.2 bus2=uclv38643.1.2 switch=n phases=2 Linecode=2P_Code0

New Line.clineacable(cramaee():s_dummy638->s_dummy644) Units=mi Length=0.000621371 bus1=s_dummy644.1.2 bus2=s_dummy638.1.2 switch=n phases=2 Linecode=2P_Code0

New Line.clineacable(cramaee():s_ncctt1547_bt->uclv9934) Units=mi Length=0.000621371 bus1=s_ncctt1547_bt.1.2.3 bus2=uclv9934.1.2.3 switch=n phases=3 Linecode=3P_Code2

New Line.switch(cramaee():s_ncctt190->s_ncctt192)_s_1555 Units=mi Length=0.000621371 bus1=s_ncctt190.1.2.3 bus2=s_ncctt190->s_ncctt192_s.1.2.3 switch=y phases=3 Linecode=3P_Code5

New Line.switch(cramaee():s_ncctt190->s_ncctt192)_s_1556 Units=mi Length=0.000621371 bus1=s_ncctt190->s_ncctt192_s_s.1.2.3 bus2=s_ncctt192.1.2.3 switch=y phases=3 Linecode=3P_Code5

New Line.clineacable(cramaee():s_ncctt1086->s_ncctt1109) Units=mi Length=0.0424610765995 bus1=s_ncctt1109.1.2.3 bus2=s_ncctt1086.1.2.3 switch=n phases=3 Linecode=3P_Code1

New Line.clineacable(cramaee():s_dummy189->uclv7855) Units=mi Length=0.0068983365678 bus1=s_dummy189.1.2 bus2=uclv7855.1.2 switch=n phases=2 Linecode=2P_Code0

New Line.clineacable(cramaee():s_dummy2282->s_ncctt1264_bt) Units=mi Length=0.014922845936 bus1=s_ncctt1264_bt.1.2 bus2=s_dummy2282.1.2 switch=n phases=2 Linecode=2P_Code7

New Line.clineacable(cramaee():s_ncctt1342->s_ncctt1441) Units=mi Length=0.144845929697 bus1=s_ncctt1441.2 bus2=s_ncctt1342.2 switch=n phases=1 Linecode=1P_Code9

New Line.clineacable(cramaee():s_dummy617->s_dummy619) Units=mi Length=0.0196875809011 bus1=s_dummy619.1.2 bus2=s_dummy617.1.2 switch=n phases=2 Linecode=2P_Code0

New Line.clineacable(cramaee():s_ncctt903_bt->uclv25256) Units=mi Length=0.0074237678854 bus1=s_ncctt903_bt.1.2 bus2=uclv25256.1.2 switch=n phases=2 Linecode=2P_Code0

New Line.clineacable(cramaee():s_dummy2328->s_ncctt1277_bt) Units=mi Length=0.000621371 bus1=s_ncctt1277_bt.1.2 bus2=s_dummy2328.1.2 switch=n phases=2 Linecode=2P_Code3

New Line.clineacable(cramaee():s_dummy443->s_dummy444) Units=mi Length=0.009843759382 bus1=s_dummy443.1.2.3 bus2=s_dummy444.1.2.3 switch=n phases=3 Linecode=3P_Code11

New Line.clineacable(cramaee():s_ncctt997_bt->uclv11281) Units=mi Length=0.00590531114528 bus1=s_ncctt997_bt.1.2 bus2=uclv11281.1.2 switch=n phases=2 Linecode=2P_Code7

New Line.clineacable(cramaee():s_ncctt694_bt->uclv33626) Units=mi Length=0.000621371 bus1=s_ncctt694_bt.1.2 bus2=uclv33626.1.2 switch=n phases=2 Linecode=2P_Code0

New Line.clineacable(cramaee():s_dummy224->s_dummy225) Units=mi Length=0.0134602628762 bus1=s_dummy224.1.2 bus2=s_dummy225.1.2 switch=n phases=2 Linecode=2P_Code0

New Line.recloser(cramaee():s_ncctt1412->ucmv119)_s_1820 Units=mi Length=0.000621371 bus1=ucmv119.1.2.3 bus2=s_ncctt1412->ucmv119_s.1.2.3 switch=y phases=3 Linecode=3P_Code5

New Line.clineacable(cramaee():s_ncctt1146->s_ncctt887) Units=mi Length=0.073977945776 bus1=s_ncctt887.3 bus2=s_ncctt1146.3 switch=n phases=1 Linecode=1P_Code9

New Line.clineacable(cramaee():s_dummy2247->s_ncctt1234_bt) Units=mi Length=0.000621371 bus1=s_ncctt1234_bt.1.2 bus2=s_dummy2247.1.2 switch=n phases=2 Linecode=2P_Code0

New Line.clineacable(cramaee():s_ncctt1244_bt->uclv8165) Units=mi Length=0.0149750411 bus1=s_ncctt1244_bt.1.2 bus2=uclv8165.1.2 switch=n phases=2 Linecode=2P_Code0

New Line.clineacable(cramaee():s_dummy219->s_dummy220) Units=mi Length=0.0178604394756 bus1=s_dummy219.1.2 bus2=s_dummy220.1.2 switch=n phases=2 Linecode=2P_Code0

New Line.clineacable(cramaee():s_ncctt658->s_ncctt723) Units=mi Length=0.069740816927 bus1=s_ncctt723.1.2.3 bus2=s_ncctt658.1.2.3 switch=n phases=3 Linecode=3P_Code1

New Line.clineacable(cramaee():s_ncctt1549->s_ncctt399) Units=mi Length=0.08991859741 bus1=s_ncctt1549.1.2.3 bus2=s_ncctt399.1.2.3 switch=n phases=3 Linecode=3P_Code1

New Line.clineacable(cramaee():s_ncctt761->s_ncctt875) Units=mi Length=0.064779790863 bus1=s_ncctt761.1.2.3 bus2=s_ncctt875.1.2.3 switch=n phases=3 Linecode=3P_Code1

New Line.switch(cramaee():s_ncctt365->s_ncctt800)_s_1585 Units=mi Length=0.000621371 bus1=s_ncctt365.1.2.3 bus2=s_ncctt365->s_ncctt800_s.1.2.3 switch=y phases=3 Linecode=3P_Code5

New Line.switch(cramaee():s_ncctt365->s_ncctt800)_s_1586 Units=mi Length=0.000621371 bus1=s_ncctt365->s_ncctt800_s_s.1.2.3 bus2=s_ncctt800.1.2.3 switch=y phases=3 Linecode=3P_Code5

New Line.clineacable(cramaee():s_ncctt1511->s_ncctt211) Units=mi Length=0.074232707886 bus1=s_ncctt1511.1.2.3 bus2=s_ncctt211.1.2.3 switch=n phases=3 Linecode=3P_Code1

New Line.clineacable(cramaee():s_dummy451->uclv9243) Units=mi Length=0.00606592933507 bus1=s_dummy451.1.2 bus2=uclv9243.1.2 switch=n phases=2 Linecode=2P_Code7

New Line.clineacable(cramaee():s_ncctt254->s_ncctt27) Units=mi Length=0.063149313359 bus1=s_ncctt254.1.2.3 bus2=s_ncctt27.1.2.3 switch=n phases=3 Linecode=3P_Code1

New Line.clineacable(cramaee():s_ncctt1239->s_ncctt1432) Units=mi Length=0.085191206842 bus1=s_ncctt1432.1.2.3 bus2=s_ncctt1239.1.2.3 switch=n phases=3 Linecode=3P_Code1

New Line.clineacable(cramaee():s_ncctt1538->s_ncctt294) Units=mi Length=0.000621371 bus1=s_ncctt294.1.2.3 bus2=s_ncctt1538.1.2.3 switch=n phases=3 Linecode=3P_Code1

New Line.clineacable(cramaee():s_ncctt140_bt->uclv62621) Units=mi Length=0.0065302985245 bus1=s_ncctt140_bt.1.2.3 bus2=uclv62621.1.2.3 switch=n phases=3 Linecode=3P_Code2

New Line.clineacable(cramaee():s_ncctt1035->s_ncctt952) Units=mi Length=0.022476231812 bus1=s_ncctt952.1.2.3 bus2=s_ncctt1035.1.2.3 switch=n phases=3 Linecode=3P_Code1

New Line.clineacable(cramaee():s_dummy2015->s_ncctt1114_bt) Units=mi Length=0.000621371 bus1=s_ncctt1114_bt.1.2 bus2=s_dummy2015.1.2 switch=n phases=2 Linecode=2P_Code3

New Line.clineacable(cramaee():s_ncctt497->s_ncctt849) Units=mi Length=0.078221909706 bus1=s_ncctt497.1.2.3 bus2=s_ncctt849.1.2.3 switch=n phases=3 Linecode=3P_Code1

New Line.clineacable(cramaee():s_dummy1354->s_ncctt622_bt) Units=mi Length=0.0096206250559 bus1=s_ncctt622_bt.1.2 bus2=s_dummy1354.1.2 switch=n phases=2 Linecode=2P_Code0

New Line.clineacable(cramaee():s_dummy42->s_dummy52) Units=mi Length=0.000621371 bus1=s_dummy42.1.2 bus2=s_dummy52.1.2 switch=n phases=2 Linecode=2P_Code3

New Line.clineacable(cramaee():s_dummy2492->uclv53175) Units=mi Length=0.0184488778126 bus1=s_dummy2492.1.2.3 bus2=uclv53175.1.2.3 switch=n phases=3 Linecode=3P_Code2

New Line.clineacable(cramaee():s_dummy2393->s_ncctt1302_bt) Units=mi Length=0.000621371 bus1=s_ncctt1302_bt.1.2 bus2=s_dummy2393.1.2 switch=n phases=2 Linecode=2P_Code8

New Line.clineacable(cramaee():s_dummy2331->uclv47532) Units=mi Length=0.0073219251785 bus1=s_dummy2331.1.2 bus2=uclv47532.1.2 switch=n phases=2 Linecode=2P_Code0

New Line.switch(cramaee():s_ncctt1215->s_ncctt1216)_s_1057 Units=mi Length=0.000621371 bus1=s_ncctt1215.1 bus2=s_ncctt1215->s_ncctt1216_s.1 switch=y phases=3 Linecode=1P_Code4

New Line.clineacable(cramaee():s_dummy183->s_ncctt61_bt) Units=mi Length=0.0085299946767 bus1=s_ncctt61_bt.1.2 bus2=s_dummy183.1.2 switch=n phases=2 Linecode=2P_Code0

New Line.clineacable(cramaee():s_dummy1240->s_ncctt544_bt) Units=mi Length=0.000621371 bus1=s_ncctt544_bt.1.2 bus2=s_dummy1240.1.2 switch=n phases=2 Linecode=2P_Code3

New Line.clineacable(cramaee():s_dummy2200->s_dummy2201) Units=mi Length=0.000621371 bus1=s_dummy2200.1.2 bus2=s_dummy2201.1.2 switch=n phases=2 Linecode=2P_Code8

New Line.clineacable(cramaee():s_ncctt1259->s_ncctt174) Units=mi Length=0.037917301162 bus1=s_ncctt1259.1.2.3 bus2=s_ncctt174.1.2.3 switch=n phases=3 Linecode=3P_Code1

New Line.clineacable(cramaee():s_ncctt256->s_ncctt299) Units=mi Length=0.0239550326549 bus1=s_ncctt256.1.2.3 bus2=s_ncctt299.1.2.3 switch=n phases=3 Linecode=3P_Code1

New Line.clineacable(cramaee():s_dummy1226->s_ncctt541_bt) Units=mi Length=0.000621371 bus1=s_ncctt541_bt.1.2 bus2=s_dummy1226.1.2 switch=n phases=2 Linecode=2P_Code3

New Line.clineacable(cramaee():s_dummy1885->s_ncctt1052_bt) Units=mi Length=0.00449668172941 bus1=s_ncctt1052_bt.1.2.3 bus2=s_dummy1885.1.2.3 switch=n phases=3 Linecode=3P_Code2

New Line.clineacable(cramaee():s_ncctt315_bt->uclv44096) Units=mi Length=0.0136538820798 bus1=s_ncctt315_bt.1.2.3 bus2=uclv44096.1.2.3 switch=n phases=3 Linecode=3P_Code2

New Line.switch(cramaee():s_ncctt171->ucmv42)_s_1080 Units=mi Length=0.000621371 bus1=s_ncctt171->ucmv42_s_s.1.2.3 bus2=ucmv42.1.2.3 switch=y phases=3 Linecode=3P_Code5

New Line.clineacable(cramaee():s_ncctt419_bt->uclv45901) Units=mi Length=0.0068079270873 bus1=s_ncctt419_bt.1.2 bus2=uclv45901.1.2 switch=n phases=2 Linecode=2P_Code0

New Line.clineacable(cramaee():s_ncctt136->s_ncctt1467) Units=mi Length=0.0440224576483 bus1=s_ncctt1467.1.2.3 bus2=s_ncctt136.1.2.3 switch=n phases=3 Linecode=3P_Code1

New Line.clineacable(cramaee():s_dummy2048->s_ncctt1138_bt) Units=mi Length=0.000621371 bus1=s_ncctt1138_bt.1.2 bus2=s_dummy2048.1.2 switch=n phases=2 Linecode=2P_Code3

New Line.clineacable(cramaee():s_ncctt1508->s_ncctt1520) Units=mi Length=0.08678067386 bus1=s_ncctt1508.1.2.3 bus2=s_ncctt1520.1.2.3 switch=n phases=3 Linecode=3P_Code1

New Line.clineacable(cramaee():s_dummy364->uclv51036) Units=mi Length=0.0298005182003 bus1=s_dummy364.1.2 bus2=uclv51036.1.2 switch=n phases=2 Linecode=2P_Code0

New Line.clineacable(cramaee():s_dummy73->s_dummy75) Units=mi Length=0.000621371 bus1=s_dummy73.1.2 bus2=s_dummy75.1.2 switch=n phases=2 Linecode=2P_Code8

New Line.clineacable(cramaee():s_ncctt1124->s_ncctt563) Units=mi Length=0.110516424689 bus1=s_ncctt563.1.2.3 bus2=s_ncctt1124.1.2.3 switch=n phases=3 Linecode=3P_Code1

New Line.breaker(cramaee():s_nssee0_69->s_nssee5_69)_s_1179 Units=mi Length=0.000621371 bus1=s_nssee0_69->s_nssee5_69_s_s.1.2.3 bus2=s_nssee5_69.1.2.3 switch=y phases=3 Linecode=3P_Code5

New Line.breaker(cramaee():s_nssee0_69->s_nssee5_69)_s_1178 Units=mi Length=0.000621371 bus1=s_nssee0_69.1.2.3 bus2=s_nssee0_69->s_nssee5_69_s.1.2.3 switch=y phases=3 Linecode=3P_Code5

New Line.clineacable(cramaee():s_dummy1876->s_dummy1877) Units=mi Length=0.0101071585489 bus1=s_dummy1876.1.2 bus2=s_dummy1877.1.2 switch=n phases=2 Linecode=2P_Code0

New Line.clineacable(cramaee():s_dummy2515->s_ncctt1396_bt) Units=mi Length=0.000621371 bus1=s_ncctt1396_bt.1.2 bus2=s_dummy2515.1.2 switch=n phases=2 Linecode=2P_Code3

New Line.clineacable(cramaee():s_ncctt186->s_ncctt389) Units=mi Length=0.0254429055144 bus1=s_ncctt389.1 bus2=s_ncctt186.1 switch=n phases=1 Linecode=1P_Code9

New Line.clineacable(cramaee():s_dummy101->s_ncctt56_bt) Units=mi Length=0.000621371 bus1=s_ncctt56_bt.1.2 bus2=s_dummy101.1.2 switch=n phases=2 Linecode=2P_Code3

New Line.clineacable(cramaee():s_dummy2173->s_ncctt1219_bt) Units=mi Length=0.000621371 bus1=s_ncctt1219_bt.1.2 bus2=s_dummy2173.1.2 switch=n phases=2 Linecode=2P_Code7

New Line.clineacable(cramaee():s_dummy1049->s_dummy1052) Units=mi Length=0.0177653075755 bus1=s_dummy1049.1.2 bus2=s_dummy1052.1.2 switch=n phases=2 Linecode=2P_Code0

New Line.clineacable(cramaee():s_ncctt568->s_ncctt681) Units=mi Length=0.085275713298 bus1=s_ncctt568->s_ncctt681_s_s.1.2.3 bus2=s_ncctt568->s_ncctt681_s.1.2.3 switch=n phases=3 Linecode=3P_Code10

New Line.clineacable(cramaee():s_ncctt1242_bt->uclv47171) Units=mi Length=0.0217054210865 bus1=s_ncctt1242_bt.1.2 bus2=uclv47171.1.2 switch=n phases=2 Linecode=2P_Code7

...